
*** ChampSim Multicore Out-of-Order Simulator ***

Warmup Instructions: 50000000
Simulation Instructions: 200000000
Number of CPUs: 1
LLC sets: 2048
LLC ways: 16
Off-chip DRAM Size: 4096 MB Channels: 1 Width: 64-bit Data Rate: 3200 MT/s

CPU 0 runs /home/hkucs/tyl/ChampSimTyl/dpc3_traces/456.hmmer-88B.champsimtrace.xz
CPU 0 Bimodal branch predictor
Heartbeat CPU 0 instructions: 10000000 cycles: 4786901 heartbeat IPC: 2.08903 cumulative IPC: 2.08903 (Simulation time: 0 hr 0 min 30 sec) 
Heartbeat CPU 0 instructions: 20000000 cycles: 9599826 heartbeat IPC: 2.07774 cumulative IPC: 2.08337 (Simulation time: 0 hr 1 min 0 sec) 
Heartbeat CPU 0 instructions: 30000003 cycles: 14413271 heartbeat IPC: 2.07751 cumulative IPC: 2.08142 (Simulation time: 0 hr 1 min 30 sec) 
Heartbeat CPU 0 instructions: 40000003 cycles: 19201400 heartbeat IPC: 2.0885 cumulative IPC: 2.08318 (Simulation time: 0 hr 2 min 0 sec) 
Heartbeat CPU 0 instructions: 50000001 cycles: 24014184 heartbeat IPC: 2.0778 cumulative IPC: 2.0821 (Simulation time: 0 hr 2 min 30 sec) 

Warmup complete CPU 0 instructions: 50000001 cycles: 24014184 (Simulation time: 0 hr 2 min 30 sec) 

Heartbeat CPU 0 instructions: 60000002 cycles: 29728321 heartbeat IPC: 1.75005 cumulative IPC: 1.75005 (Simulation time: 0 hr 3 min 0 sec) 
Heartbeat CPU 0 instructions: 70000002 cycles: 35393020 heartbeat IPC: 1.76532 cumulative IPC: 1.75765 (Simulation time: 0 hr 3 min 30 sec) 
Heartbeat CPU 0 instructions: 80000001 cycles: 41031872 heartbeat IPC: 1.77341 cumulative IPC: 1.76287 (Simulation time: 0 hr 4 min 0 sec) 
Heartbeat CPU 0 instructions: 90000000 cycles: 46691467 heartbeat IPC: 1.76691 cumulative IPC: 1.76388 (Simulation time: 0 hr 4 min 30 sec) 
Heartbeat CPU 0 instructions: 100000001 cycles: 52331286 heartbeat IPC: 1.77311 cumulative IPC: 1.76572 (Simulation time: 0 hr 4 min 59 sec) 
Heartbeat CPU 0 instructions: 110000000 cycles: 57967006 heartbeat IPC: 1.7744 cumulative IPC: 1.76716 (Simulation time: 0 hr 5 min 29 sec) 
Heartbeat CPU 0 instructions: 120000002 cycles: 63632910 heartbeat IPC: 1.76494 cumulative IPC: 1.76684 (Simulation time: 0 hr 5 min 58 sec) 
Heartbeat CPU 0 instructions: 130000003 cycles: 69272349 heartbeat IPC: 1.77323 cumulative IPC: 1.76764 (Simulation time: 0 hr 6 min 28 sec) 
Heartbeat CPU 0 instructions: 140000000 cycles: 74944003 heartbeat IPC: 1.76315 cumulative IPC: 1.76714 (Simulation time: 0 hr 6 min 57 sec) 
Heartbeat CPU 0 instructions: 150000002 cycles: 80572875 heartbeat IPC: 1.77656 cumulative IPC: 1.76807 (Simulation time: 0 hr 7 min 28 sec) 
Heartbeat CPU 0 instructions: 160000002 cycles: 86209811 heartbeat IPC: 1.77401 cumulative IPC: 1.76861 (Simulation time: 0 hr 7 min 58 sec) 
Heartbeat CPU 0 instructions: 170000000 cycles: 91950799 heartbeat IPC: 1.74186 cumulative IPC: 1.76635 (Simulation time: 0 hr 8 min 28 sec) 
Heartbeat CPU 0 instructions: 180000002 cycles: 97589082 heartbeat IPC: 1.77359 cumulative IPC: 1.76691 (Simulation time: 0 hr 8 min 58 sec) 
Heartbeat CPU 0 instructions: 190000001 cycles: 103271075 heartbeat IPC: 1.75995 cumulative IPC: 1.76641 (Simulation time: 0 hr 9 min 27 sec) 
Heartbeat CPU 0 instructions: 200000003 cycles: 108929631 heartbeat IPC: 1.76724 cumulative IPC: 1.76646 (Simulation time: 0 hr 9 min 57 sec) 
Heartbeat CPU 0 instructions: 210000002 cycles: 114580045 heartbeat IPC: 1.76978 cumulative IPC: 1.76667 (Simulation time: 0 hr 10 min 27 sec) 
Heartbeat CPU 0 instructions: 220000000 cycles: 120226852 heartbeat IPC: 1.77091 cumulative IPC: 1.76692 (Simulation time: 0 hr 10 min 56 sec) 
Heartbeat CPU 0 instructions: 230000000 cycles: 125871731 heartbeat IPC: 1.77152 cumulative IPC: 1.76717 (Simulation time: 0 hr 11 min 26 sec) 
Heartbeat CPU 0 instructions: 240000003 cycles: 131487281 heartbeat IPC: 1.78077 cumulative IPC: 1.76788 (Simulation time: 0 hr 11 min 56 sec) 
Heartbeat CPU 0 instructions: 250000000 cycles: 137134766 heartbeat IPC: 1.7707 cumulative IPC: 1.76802 (Simulation time: 0 hr 12 min 25 sec) 
Finished CPU 0 instructions: 200000003 cycles: 113120583 cumulative IPC: 1.76802 (Simulation time: 0 hr 12 min 25 sec) 

ChampSim completed all CPUs

Region of Interest Statistics

CPU 0 cumulative IPC: 1.76802 instructions: 200000003 cycles: 113120583
L1D TOTAL     ACCESS:   80308406  HIT:   79446604  MISS:     861802
L1D LOAD      ACCESS:   58199921  HIT:   58171189  MISS:      28732
L1D RFO       ACCESS:   12552950  HIT:   12367209  MISS:     185741
L1D PREFETCH  ACCESS:    9555535  HIT:    8908206  MISS:     647329
L1D WRITEBACK ACCESS:          0  HIT:          0  MISS:          0
L1D PREFETCH  REQUESTED:   12522251  ISSUED:   12088908  USEFUL:     753562  USELESS:      56541
L1D AVERAGE MISS LATENCY: 33.4226 cycles
L1I TOTAL     ACCESS:   32819775  HIT:   32819763  MISS:         12
L1I LOAD      ACCESS:   32819775  HIT:   32819763  MISS:         12
L1I RFO       ACCESS:          0  HIT:          0  MISS:          0
L1I PREFETCH  ACCESS:          0  HIT:          0  MISS:          0
L1I WRITEBACK ACCESS:          0  HIT:          0  MISS:          0
L1I PREFETCH  REQUESTED:          0  ISSUED:          0  USEFUL:          0  USELESS:          0
L1I AVERAGE MISS LATENCY: 147.167 cycles
L2C TOTAL     ACCESS:    3547676  HIT:    3000503  MISS:     547173
L2C LOAD      ACCESS:      27599  HIT:      23766  MISS:       3833
L2C RFO       ACCESS:     185729  HIT:       4276  MISS:     181453
L2C PREFETCH  ACCESS:    2800166  HIT:    2438342  MISS:     361824
L2C WRITEBACK ACCESS:     534182  HIT:     534119  MISS:         63
L2C PREFETCH  REQUESTED:    3112206  ISSUED:    3112049  USEFUL:       6895  USELESS:     441752
L2C AVERAGE MISS LATENCY: 78.0117 cycles
LLC TOTAL     ACCESS:    1069951  HIT:     932012  MISS:     137939
LLC LOAD      ACCESS:       3818  HIT:       3090  MISS:        728
LLC RFO       ACCESS:     181452  HIT:     135009  MISS:      46443
LLC PREFETCH  ACCESS:     361839  HIT:     271084  MISS:      90755
LLC WRITEBACK ACCESS:     522842  HIT:     522829  MISS:         13
LLC PREFETCH  REQUESTED:          0  ISSUED:          0  USEFUL:       1422  USELESS:     158803
LLC AVERAGE MISS LATENCY: 190.466 cycles
Major fault: 0 Minor fault: 1355


DRAM Statistics
 CHANNEL 0
 RQ ROW_BUFFER_HIT:      32310  ROW_BUFFER_MISS:     105609
 DBUS_CONGESTED:      67895
 WQ ROW_BUFFER_HIT:      26935  ROW_BUFFER_MISS:     107821  FULL:          0

 AVG_CONGESTED_CYCLE: 6

CPU 0 Branch Prediction Accuracy: 99.4026% MPKI: 0.26406 Average ROB Occupancy at Mispredict: 87.8662

Branch types
NOT_BRANCH: 191160055 95.58%
BRANCH_DIRECT_JUMP: 36668 0.018334%
BRANCH_INDIRECT: 12522 0.006261%
BRANCH_CONDITIONAL: 8729018 4.36451%
BRANCH_DIRECT_CALL: 30645 0.0153225%
BRANCH_INDIRECT_CALL: 208 0.000104%
BRANCH_RETURN: 30853 0.0154265%
BRANCH_OTHER: 0 0%

